REMARK SMILES CCC(C)(C)C(=O)O[C@H]1C[C@@H](C)C=C2C=C[C@H](C)[C@H](CC[C@@H]3C[C@@H](O)CC(=O)O3)[C@H]21
REMARK SMILES IDX 30 1 9 2 10 3 11 4 12 5 13 6 14 7 15 8 16 9 17 10 18 11
REMARK SMILES IDX 19 12 8 13 6 14 7 15 3 16 4 17 5 18 2 19 1 20 20 21 21 22
REMARK SMILES IDX 22 23 23 24 29 25 24 26 27 27 26 28 28 29 25 30
REMARK H PARENT 25 31
REMARK Flexibility Score: inf
ROOT
ATOM      1  C   UNL A   1       2.114  -0.181  -0.042  1.00  0.00     0.063 C 
ATOM      2  C   UNL A   1       2.323   1.342   0.202  1.00  0.00     0.185 C 
ATOM      3  C   UNL A   1       1.779   2.112  -1.007  1.00  0.00     0.053 C 
ATOM      4  C   UNL A   1       2.503   1.757  -2.323  1.00  0.00     0.012 C 
ATOM      5  C   UNL A   1       3.800   2.549  -2.518  1.00  0.00     0.012 C 
ATOM      6  C   UNL A   1       2.808   0.278  -2.428  1.00  0.00    -0.020 C 
ATOM      7  C   UNL A   1       2.648  -0.602  -1.412  1.00  0.00    -0.045 C 
ATOM      8  C   UNL A   1       2.964  -2.030  -1.657  1.00  0.00    -0.000 C 
ATOM      9  C   UNL A   1       2.866  -2.949  -0.687  1.00  0.00    -0.023 C 
ATOM     10  C   UNL A   1       2.472  -2.607   0.731  1.00  0.00     0.012 C 
ATOM     11  C   UNL A   1       1.027  -3.084   0.959  1.00  0.00     0.012 C 
ATOM     12  C   UNL A   1       2.730  -1.097   1.060  1.00  0.00     0.007 C 
ENDROOT
BRANCH   2  13
ATOM     13  O   UNL A   1       3.665   1.631   0.422  1.00  0.00    -0.461 OA
BRANCH  13  14
ATOM     14  C   UNL A   1       4.154   2.281   1.517  1.00  0.00     0.311 C 
ATOM     15  O   UNL A   1       3.389   2.833   2.297  1.00  0.00    -0.252 OA
BRANCH  14  16
ATOM     16  C   UNL A   1       5.658   2.311   1.775  1.00  0.00     0.062 C 
ATOM     17  C   UNL A   1       5.979   3.063   3.091  1.00  0.00     0.023 C 
ATOM     18  C   UNL A   1       6.153   0.859   1.926  1.00  0.00     0.023 C 
BRANCH  16  19
ATOM     19  C   UNL A   1       6.409   2.967   0.582  1.00  0.00     0.015 C 
ATOM     20  C   UNL A   1       5.965   4.398   0.255  1.00  0.00     0.005 C 
ENDBRANCH  16  19
ENDBRANCH  14  16
ENDBRANCH  13  14
ENDBRANCH   2  13
BRANCH  12  21
ATOM     21  C   UNL A   1       2.276  -0.701   2.495  1.00  0.00     0.009 C 
BRANCH  21  22
ATOM     22  C   UNL A   1       2.955  -1.528   3.605  1.00  0.00     0.046 C 
BRANCH  22  23
ATOM     23  C   UNL A   1       2.546  -1.098   5.028  1.00  0.00     0.179 C 
ATOM     24  C   UNL A   1       2.952   0.370   5.332  1.00  0.00     0.077 C 
ATOM     25  O   UNL A   1       3.106  -1.990   5.938  1.00  0.00    -0.462 OA
ATOM     26  C   UNL A   1       2.790   0.648   6.826  1.00  0.00     0.129 C 
ATOM     27  C   UNL A   1       3.759  -1.661   7.086  1.00  0.00     0.308 C 
ATOM     28  C   UNL A   1       3.765  -0.248   7.613  1.00  0.00     0.154 C 
ATOM     29  O   UNL A   1       4.394  -2.521   7.676  1.00  0.00    -0.252 OA
BRANCH  26  30
ATOM     30  O   UNL A   1       1.448   0.461   7.220  1.00  0.00    -0.392 OA
ATOM     31  H   UNL A   1       1.297  -0.500   7.413  1.00  0.00     0.210 HD
ENDBRANCH  26  30
ENDBRANCH  22  23
ENDBRANCH  21  22
ENDBRANCH  12  21
TORSDOF 8
