MODEL 1
REMARK VINA RESULT:    -6.590      0.000      0.000
REMARK INTER + INTRA:         -11.436
REMARK INTER:                  -9.479
REMARK INTRA:                  -1.957
REMARK UNBOUND:                -1.957
REMARK SMILES CCC(C)(C)C(=O)O[C@H]1C[C@@H](C)C=C2C=C[C@H](C)[C@H](CC[C@@H]3C[C@@H](O)CC(=O)O3)[C@H]21
REMARK SMILES IDX 30 1 9 2 10 3 11 4 12 5 13 6 14 7 15 8 16 9 17 10 18 11
REMARK SMILES IDX 19 12 8 13 6 14 7 15 3 16 4 17 5 18 2 19 1 20 20 21 21 22
REMARK SMILES IDX 22 23 23 24 29 25 24 26 27 27 26 28 28 29 25 30
REMARK H PARENT 25 31
REMARK Flexibility Score: inf
ROOT
ATOM      1  C   UNL A   1     -36.918   9.164  25.234  1.00  0.00     0.063 C 
ATOM      2  C   UNL A   1     -37.153  10.248  26.325  1.00  0.00     0.185 C 
ATOM      3  C   UNL A   1     -38.605  10.732  26.231  1.00  0.00     0.053 C 
ATOM      4  C   UNL A   1     -38.938  11.376  24.868  1.00  0.00     0.012 C 
ATOM      5  C   UNL A   1     -38.537  12.854  24.798  1.00  0.00     0.012 C 
ATOM      6  C   UNL A   1     -38.298  10.636  23.713  1.00  0.00    -0.020 C 
ATOM      7  C   UNL A   1     -37.384   9.649  23.860  1.00  0.00    -0.045 C 
ATOM      8  C   UNL A   1     -36.853   8.990  22.642  1.00  0.00    -0.000 C 
ATOM      9  C   UNL A   1     -35.918   8.033  22.711  1.00  0.00    -0.023 C 
ATOM     10  C   UNL A   1     -35.302   7.578  24.013  1.00  0.00     0.012 C 
ATOM     11  C   UNL A   1     -35.884   6.199  24.367  1.00  0.00     0.012 C 
ATOM     12  C   UNL A   1     -35.444   8.663  25.135  1.00  0.00     0.007 C 
ENDROOT
BRANCH   2  13
ATOM     13  O   UNL A   1     -36.259  11.303  26.180  1.00  0.00    -0.461 OA
BRANCH  13  14
ATOM     14  C   UNL A   1     -35.667  11.971  27.211  1.00  0.00     0.311 C 
ATOM     15  O   UNL A   1     -35.586  11.450  28.316  1.00  0.00    -0.252 OA
BRANCH  14  16
ATOM     16  C   UNL A   1     -35.095  13.368  26.983  1.00  0.00     0.062 C 
ATOM     17  C   UNL A   1     -34.477  13.489  25.567  1.00  0.00     0.023 C 
ATOM     18  C   UNL A   1     -36.247  14.386  27.086  1.00  0.00     0.023 C 
BRANCH  16  19
ATOM     19  C   UNL A   1     -34.033  13.712  28.066  1.00  0.00     0.015 C 
ATOM     20  C   UNL A   1     -34.452  14.816  29.044  1.00  0.00     0.005 C 
ENDBRANCH  16  19
ENDBRANCH  14  16
ENDBRANCH  13  14
ENDBRANCH   2  13
BRANCH  12  21
ATOM     21  C   UNL A   1     -34.873   8.198  26.506  1.00  0.00     0.009 C 
BRANCH  21  22
ATOM     22  C   UNL A   1     -33.393   7.771  26.443  1.00  0.00     0.046 C 
BRANCH  22  23
ATOM     23  C   UNL A   1     -32.427   8.811  27.045  1.00  0.00     0.179 C 
ATOM     24  C   UNL A   1     -32.726  10.247  26.533  1.00  0.00     0.077 C 
ATOM     25  O   UNL A   1     -31.122   8.420  26.760  1.00  0.00    -0.462 OA
ATOM     26  C   UNL A   1     -31.580  11.179  26.923  1.00  0.00     0.129 C 
ATOM     27  C   UNL A   1     -30.130   9.222  26.287  1.00  0.00     0.308 C 
ATOM     28  C   UNL A   1     -30.293  10.720  26.212  1.00  0.00     0.154 C 
ATOM     29  O   UNL A   1     -29.102   8.712  25.869  1.00  0.00    -0.252 OA
BRANCH  26  30
ATOM     30  O   UNL A   1     -31.434  11.222  28.326  1.00  0.00    -0.392 OA
ATOM     31  H   UNL A   1     -30.621  10.716  28.584  1.00  0.00     0.210 HD
ENDBRANCH  26  30
ENDBRANCH  22  23
ENDBRANCH  21  22
ENDBRANCH  12  21
TORSDOF 8
ENDMDL
MODEL 2
REMARK VINA RESULT:    -6.537      1.749      4.810
REMARK INTER + INTRA:         -11.360
REMARK INTER:                  -9.393
REMARK INTRA:                  -1.967
REMARK UNBOUND:                -1.957
REMARK SMILES CCC(C)(C)C(=O)O[C@H]1C[C@@H](C)C=C2C=C[C@H](C)[C@H](CC[C@@H]3C[C@@H](O)CC(=O)O3)[C@H]21
REMARK SMILES IDX 30 1 9 2 10 3 11 4 12 5 13 6 14 7 15 8 16 9 17 10 18 11
REMARK SMILES IDX 19 12 8 13 6 14 7 15 3 16 4 17 5 18 2 19 1 20 20 21 21 22
REMARK SMILES IDX 22 23 23 24 29 25 24 26 27 27 26 28 28 29 25 30
REMARK H PARENT 25 31
REMARK Flexibility Score: inf
ROOT
ATOM      1  C   UNL A   1     -37.483  11.621  26.147  1.00  0.00     0.063 C 
ATOM      2  C   UNL A   1     -37.096  10.942  24.801  1.00  0.00     0.185 C 
ATOM      3  C   UNL A   1     -38.248  11.130  23.807  1.00  0.00     0.053 C 
ATOM      4  C   UNL A   1     -39.565  10.482  24.282  1.00  0.00     0.012 C 
ATOM      5  C   UNL A   1     -39.644   8.988  23.950  1.00  0.00     0.012 C 
ATOM      6  C   UNL A   1     -39.793  10.670  25.767  1.00  0.00    -0.020 C 
ATOM      7  C   UNL A   1     -38.867  11.170  26.618  1.00  0.00    -0.045 C 
ATOM      8  C   UNL A   1     -39.229  11.322  28.047  1.00  0.00    -0.000 C 
ATOM      9  C   UNL A   1     -38.350  11.774  28.952  1.00  0.00    -0.023 C 
ATOM     10  C   UNL A   1     -36.921  12.121  28.606  1.00  0.00     0.012 C 
ATOM     11  C   UNL A   1     -36.786  13.654  28.595  1.00  0.00     0.012 C 
ATOM     12  C   UNL A   1     -36.449  11.406  27.294  1.00  0.00     0.007 C 
ENDROOT
BRANCH   2  13
ATOM     13  O   UNL A   1     -36.805   9.595  24.988  1.00  0.00    -0.461 OA
BRANCH  13  14
ATOM     14  C   UNL A   1     -35.634   8.993  24.635  1.00  0.00     0.311 C 
ATOM     15  O   UNL A   1     -34.878   9.537  23.840  1.00  0.00    -0.252 OA
BRANCH  14  16
ATOM     16  C   UNL A   1     -35.260   7.643  25.241  1.00  0.00     0.062 C 
ATOM     17  C   UNL A   1     -33.947   7.747  26.057  1.00  0.00     0.023 C 
ATOM     18  C   UNL A   1     -36.384   7.216  26.204  1.00  0.00     0.023 C 
BRANCH  16  19
ATOM     19  C   UNL A   1     -35.121   6.561  24.133  1.00  0.00     0.015 C 
ATOM     20  C   UNL A   1     -36.296   5.580  24.046  1.00  0.00     0.005 C 
ENDBRANCH  16  19
ENDBRANCH  14  16
ENDBRANCH  13  14
ENDBRANCH   2  13
BRANCH  12  21
ATOM     21  C   UNL A   1     -35.000  11.793  26.878  1.00  0.00     0.009 C 
BRANCH  21  22
ATOM     22  C   UNL A   1     -33.912  10.973  27.601  1.00  0.00     0.046 C 
BRANCH  22  23
ATOM     23  C   UNL A   1     -32.480  11.322  27.151  1.00  0.00     0.179 C 
ATOM     24  C   UNL A   1     -32.250  11.013  25.646  1.00  0.00     0.077 C 
ATOM     25  O   UNL A   1     -31.581  10.637  27.964  1.00  0.00    -0.462 OA
ATOM     26  C   UNL A   1     -30.759  11.100  25.326  1.00  0.00     0.129 C 
ATOM     27  C   UNL A   1     -30.490   9.939  27.544  1.00  0.00     0.308 C 
ATOM     28  C   UNL A   1     -30.010  10.010  26.116  1.00  0.00     0.154 C 
ATOM     29  O   UNL A   1     -29.917   9.202  28.331  1.00  0.00    -0.252 OA
BRANCH  26  30
ATOM     30  O   UNL A   1     -30.270  12.395  25.600  1.00  0.00    -0.392 OA
ATOM     31  H   UNL A   1     -30.730  12.754  26.402  1.00  0.00     0.210 HD
ENDBRANCH  26  30
ENDBRANCH  22  23
ENDBRANCH  21  22
ENDBRANCH  12  21
TORSDOF 8
ENDMDL
MODEL 3
REMARK VINA RESULT:    -6.529      1.924      5.344
REMARK INTER + INTRA:         -11.348
REMARK INTER:                  -9.130
REMARK INTRA:                  -2.218
REMARK UNBOUND:                -1.957
REMARK SMILES CCC(C)(C)C(=O)O[C@H]1C[C@@H](C)C=C2C=C[C@H](C)[C@H](CC[C@@H]3C[C@@H](O)CC(=O)O3)[C@H]21
REMARK SMILES IDX 30 1 9 2 10 3 11 4 12 5 13 6 14 7 15 8 16 9 17 10 18 11
REMARK SMILES IDX 19 12 8 13 6 14 7 15 3 16 4 17 5 18 2 19 1 20 20 21 21 22
REMARK SMILES IDX 22 23 23 24 29 25 24 26 27 27 26 28 28 29 25 30
REMARK H PARENT 25 31
REMARK Flexibility Score: inf
ROOT
ATOM      1  C   UNL A   1     -36.658  14.145  28.005  1.00  0.00     0.063 C 
ATOM      2  C   UNL A   1     -36.762  13.395  26.644  1.00  0.00     0.185 C 
ATOM      3  C   UNL A   1     -37.968  13.944  25.873  1.00  0.00     0.053 C 
ATOM      4  C   UNL A   1     -39.305  13.733  26.614  1.00  0.00     0.012 C 
ATOM      5  C   UNL A   1     -39.901  12.342  26.375  1.00  0.00     0.012 C 
ATOM      6  C   UNL A   1     -39.176  13.965  28.104  1.00  0.00    -0.020 C 
ATOM      7  C   UNL A   1     -37.997  14.142  28.744  1.00  0.00    -0.045 C 
ATOM      8  C   UNL A   1     -38.015  14.382  30.207  1.00  0.00    -0.000 C 
ATOM      9  C   UNL A   1     -36.884  14.527  30.911  1.00  0.00    -0.023 C 
ATOM     10  C   UNL A   1     -35.511  14.416  30.290  1.00  0.00     0.012 C 
ATOM     11  C   UNL A   1     -34.915  15.831  30.180  1.00  0.00     0.012 C 
ATOM     12  C   UNL A   1     -35.541  13.605  28.950  1.00  0.00     0.007 C 
ENDROOT
BRANCH   2  13
ATOM     13  O   UNL A   1     -36.870  12.023  26.840  1.00  0.00    -0.461 OA
BRANCH  13  14
ATOM     14  C   UNL A   1     -36.271  11.075  26.063  1.00  0.00     0.311 C 
ATOM     15  O   UNL A   1     -35.769  11.385  24.991  1.00  0.00    -0.252 OA
BRANCH  14  16
ATOM     16  C   UNL A   1     -36.219   9.625  26.538  1.00  0.00     0.062 C 
ATOM     17  C   UNL A   1     -36.250   9.548  28.085  1.00  0.00     0.023 C 
ATOM     18  C   UNL A   1     -37.466   8.894  26.002  1.00  0.00     0.023 C 
BRANCH  16  19
ATOM     19  C   UNL A   1     -34.953   8.910  25.988  1.00  0.00     0.015 C 
ATOM     20  C   UNL A   1     -34.023   8.336  27.064  1.00  0.00     0.005 C 
ENDBRANCH  16  19
ENDBRANCH  14  16
ENDBRANCH  13  14
ENDBRANCH   2  13
BRANCH  12  21
ATOM     21  C   UNL A   1     -34.150  13.527  28.255  1.00  0.00     0.009 C 
BRANCH  21  22
ATOM     22  C   UNL A   1     -33.557  12.105  28.225  1.00  0.00     0.046 C 
BRANCH  22  23
ATOM     23  C   UNL A   1     -32.214  12.016  27.472  1.00  0.00     0.179 C 
ATOM     24  C   UNL A   1     -32.403  11.593  25.990  1.00  0.00     0.077 C 
ATOM     25  O   UNL A   1     -31.379  11.139  28.159  1.00  0.00    -0.462 OA
ATOM     26  C   UNL A   1     -31.047  11.241  25.380  1.00  0.00     0.129 C 
ATOM     27  C   UNL A   1     -30.631  10.145  27.607  1.00  0.00     0.308 C 
ATOM     28  C   UNL A   1     -30.467  10.018  26.114  1.00  0.00     0.154 C 
ATOM     29  O   UNL A   1     -30.121   9.309  28.337  1.00  0.00    -0.252 OA
BRANCH  26  30
ATOM     30  O   UNL A   1     -30.183  12.356  25.423  1.00  0.00    -0.392 OA
ATOM     31  H   UNL A   1     -29.256  12.056  25.235  1.00  0.00     0.210 HD
ENDBRANCH  26  30
ENDBRANCH  22  23
ENDBRANCH  21  22
ENDBRANCH  12  21
TORSDOF 8
ENDMDL
MODEL 4
REMARK VINA RESULT:    -6.424      1.654      2.229
REMARK INTER + INTRA:         -11.197
REMARK INTER:                  -9.414
REMARK INTRA:                  -1.783
REMARK UNBOUND:                -1.957
REMARK SMILES CCC(C)(C)C(=O)O[C@H]1C[C@@H](C)C=C2C=C[C@H](C)[C@H](CC[C@@H]3C[C@@H](O)CC(=O)O3)[C@H]21
REMARK SMILES IDX 30 1 9 2 10 3 11 4 12 5 13 6 14 7 15 8 16 9 17 10 18 11
REMARK SMILES IDX 19 12 8 13 6 14 7 15 3 16 4 17 5 18 2 19 1 20 20 21 21 22
REMARK SMILES IDX 22 23 23 24 29 25 24 26 27 27 26 28 28 29 25 30
REMARK H PARENT 25 31
REMARK Flexibility Score: inf
ROOT
ATOM      1  C   UNL A   1     -36.983   9.788  26.288  1.00  0.00     0.063 C 
ATOM      2  C   UNL A   1     -37.435  10.287  27.691  1.00  0.00     0.185 C 
ATOM      3  C   UNL A   1     -38.920   9.957  27.875  1.00  0.00     0.053 C 
ATOM      4  C   UNL A   1     -39.825  10.648  26.832  1.00  0.00     0.012 C 
ATOM      5  C   UNL A   1     -40.190  12.084  27.222  1.00  0.00     0.012 C 
ATOM      6  C   UNL A   1     -39.204  10.655  25.451  1.00  0.00    -0.020 C 
ATOM      7  C   UNL A   1     -37.929  10.282  25.192  1.00  0.00    -0.045 C 
ATOM      8  C   UNL A   1     -37.454  10.315  23.788  1.00  0.00    -0.000 C 
ATOM      9  C   UNL A   1     -36.194   9.997  23.463  1.00  0.00    -0.023 C 
ATOM     10  C   UNL A   1     -35.151   9.623  24.491  1.00  0.00     0.012 C 
ATOM     11  C   UNL A   1     -34.919   8.104  24.413  1.00  0.00     0.012 C 
ATOM     12  C   UNL A   1     -35.516  10.164  25.916  1.00  0.00     0.007 C 
ENDROOT
BRANCH   2  13
ATOM     13  O   UNL A   1     -37.199  11.650  27.834  1.00  0.00    -0.461 OA
BRANCH  13  14
ATOM     14  C   UNL A   1     -36.957  12.281  29.019  1.00  0.00     0.311 C 
ATOM     15  O   UNL A   1     -36.753  11.626  30.033  1.00  0.00    -0.252 OA
BRANCH  14  16
ATOM     16  C   UNL A   1     -36.931  13.805  29.078  1.00  0.00     0.062 C 
ATOM     17  C   UNL A   1     -36.999  14.416  27.655  1.00  0.00     0.023 C 
ATOM     18  C   UNL A   1     -38.172  14.282  29.858  1.00  0.00     0.023 C 
BRANCH  16  19
ATOM     19  C   UNL A   1     -35.659  14.307  29.819  1.00  0.00     0.015 C 
ATOM     20  C   UNL A   1     -34.404  14.405  28.943  1.00  0.00     0.005 C 
ENDBRANCH  16  19
ENDBRANCH  14  16
ENDBRANCH  13  14
ENDBRANCH   2  13
BRANCH  12  21
ATOM     21  C   UNL A   1     -34.490   9.741  27.008  1.00  0.00     0.009 C 
BRANCH  21  22
ATOM     22  C   UNL A   1     -33.849  10.934  27.743  1.00  0.00     0.046 C 
BRANCH  22  23
ATOM     23  C   UNL A   1     -32.429  11.271  27.245  1.00  0.00     0.179 C 
ATOM     24  C   UNL A   1     -32.251  10.955  25.735  1.00  0.00     0.077 C 
ATOM     25  O   UNL A   1     -31.509  10.582  28.031  1.00  0.00    -0.462 OA
ATOM     26  C   UNL A   1     -30.770  11.029  25.366  1.00  0.00     0.129 C 
ATOM     27  C   UNL A   1     -30.438   9.875  27.579  1.00  0.00     0.308 C 
ATOM     28  C   UNL A   1     -30.005   9.936  26.135  1.00  0.00     0.154 C 
ATOM     29  O   UNL A   1     -29.845   9.136  28.349  1.00  0.00    -0.252 OA
BRANCH  26  30
ATOM     30  O   UNL A   1     -30.263  12.322  25.619  1.00  0.00    -0.392 OA
ATOM     31  H   UNL A   1     -30.017  12.748  24.758  1.00  0.00     0.210 HD
ENDBRANCH  26  30
ENDBRANCH  22  23
ENDBRANCH  21  22
ENDBRANCH  12  21
TORSDOF 8
ENDMDL
MODEL 5
REMARK VINA RESULT:    -6.285      1.546      2.070
REMARK INTER + INTRA:         -10.997
REMARK INTER:                  -9.016
REMARK INTRA:                  -1.981
REMARK UNBOUND:                -1.957
REMARK SMILES CCC(C)(C)C(=O)O[C@H]1C[C@@H](C)C=C2C=C[C@H](C)[C@H](CC[C@@H]3C[C@@H](O)CC(=O)O3)[C@H]21
REMARK SMILES IDX 30 1 9 2 10 3 11 4 12 5 13 6 14 7 15 8 16 9 17 10 18 11
REMARK SMILES IDX 19 12 8 13 6 14 7 15 3 16 4 17 5 18 2 19 1 20 20 21 21 22
REMARK SMILES IDX 22 23 23 24 29 25 24 26 27 27 26 28 28 29 25 30
REMARK H PARENT 25 31
REMARK Flexibility Score: inf
ROOT
ATOM      1  C   UNL A   1     -36.987   8.292  25.822  1.00  0.00     0.063 C 
ATOM      2  C   UNL A   1     -37.352   8.933  27.192  1.00  0.00     0.185 C 
ATOM      3  C   UNL A   1     -38.873   8.871  27.374  1.00  0.00     0.053 C 
ATOM      4  C   UNL A   1     -39.641   9.651  26.286  1.00  0.00     0.012 C 
ATOM      5  C   UNL A   1     -39.757  11.147  26.600  1.00  0.00     0.012 C 
ATOM      6  C   UNL A   1     -39.024   9.481  24.915  1.00  0.00    -0.020 C 
ATOM      7  C   UNL A   1     -37.830   8.883  24.691  1.00  0.00    -0.045 C 
ATOM      8  C   UNL A   1     -37.351   8.763  23.293  1.00  0.00    -0.000 C 
ATOM      9  C   UNL A   1     -36.162   8.217  23.001  1.00  0.00    -0.023 C 
ATOM     10  C   UNL A   1     -35.203   7.724  24.059  1.00  0.00     0.012 C 
ATOM     11  C   UNL A   1     -35.235   6.185  24.059  1.00  0.00     0.012 C 
ATOM     12  C   UNL A   1     -35.475   8.392  25.450  1.00  0.00     0.007 C 
ENDROOT
BRANCH   2  13
ATOM     13  O   UNL A   1     -36.887  10.241  27.270  1.00  0.00    -0.461 OA
BRANCH  13  14
ATOM     14  C   UNL A   1     -36.421  10.838  28.404  1.00  0.00     0.311 C 
ATOM     15  O   UNL A   1     -36.398  10.218  29.460  1.00  0.00    -0.252 OA
BRANCH  14  16
ATOM     16  C   UNL A   1     -35.919  12.278  28.355  1.00  0.00     0.062 C 
ATOM     17  C   UNL A   1     -36.640  13.078  27.240  1.00  0.00     0.023 C 
ATOM     18  C   UNL A   1     -36.241  12.950  29.704  1.00  0.00     0.023 C 
BRANCH  16  19
ATOM     19  C   UNL A   1     -34.380  12.318  28.138  1.00  0.00     0.015 C 
ATOM     20  C   UNL A   1     -33.844  13.650  27.599  1.00  0.00     0.005 C 
ENDBRANCH  16  19
ENDBRANCH  14  16
ENDBRANCH  13  14
ENDBRANCH   2  13
BRANCH  12  21
ATOM     21  C   UNL A   1     -34.542   7.857  26.574  1.00  0.00     0.009 C 
BRANCH  21  22
ATOM     22  C   UNL A   1     -33.650   8.946  27.203  1.00  0.00     0.046 C 
BRANCH  22  23
ATOM     23  C   UNL A   1     -32.346   9.199  26.421  1.00  0.00     0.179 C 
ATOM     24  C   UNL A   1     -31.151   9.503  27.365  1.00  0.00     0.077 C 
ATOM     25  O   UNL A   1     -32.567  10.232  25.515  1.00  0.00    -0.462 OA
ATOM     26  C   UNL A   1     -29.971  10.025  26.546  1.00  0.00     0.129 C 
ATOM     27  C   UNL A   1     -31.748  11.297  25.297  1.00  0.00     0.308 C 
ATOM     28  C   UNL A   1     -30.364  11.363  25.893  1.00  0.00     0.154 C 
ATOM     29  O   UNL A   1     -32.162  12.241  24.643  1.00  0.00    -0.252 OA
BRANCH  26  30
ATOM     30  O   UNL A   1     -29.563   9.062  25.599  1.00  0.00    -0.392 OA
ATOM     31  H   UNL A   1     -29.313   9.521  24.756  1.00  0.00     0.210 HD
ENDBRANCH  26  30
ENDBRANCH  22  23
ENDBRANCH  21  22
ENDBRANCH  12  21
TORSDOF 8
ENDMDL
MODEL 6
REMARK VINA RESULT:    -6.189      3.389      5.856
REMARK INTER + INTRA:         -10.860
REMARK INTER:                  -8.982
REMARK INTRA:                  -1.877
REMARK UNBOUND:                -1.957
REMARK SMILES CCC(C)(C)C(=O)O[C@H]1C[C@@H](C)C=C2C=C[C@H](C)[C@H](CC[C@@H]3C[C@@H](O)CC(=O)O3)[C@H]21
REMARK SMILES IDX 30 1 9 2 10 3 11 4 12 5 13 6 14 7 15 8 16 9 17 10 18 11
REMARK SMILES IDX 19 12 8 13 6 14 7 15 3 16 4 17 5 18 2 19 1 20 20 21 21 22
REMARK SMILES IDX 22 23 23 24 29 25 24 26 27 27 26 28 28 29 25 30
REMARK H PARENT 25 31
REMARK Flexibility Score: inf
ROOT
ATOM      1  C   UNL A   1     -36.365  13.491  30.546  1.00  0.00     0.063 C 
ATOM      2  C   UNL A   1     -35.633  14.708  31.184  1.00  0.00     0.185 C 
ATOM      3  C   UNL A   1     -36.064  14.826  32.650  1.00  0.00     0.053 C 
ATOM      4  C   UNL A   1     -37.580  15.066  32.815  1.00  0.00     0.012 C 
ATOM      5  C   UNL A   1     -37.963  16.543  32.679  1.00  0.00     0.012 C 
ATOM      6  C   UNL A   1     -38.399  14.252  31.837  1.00  0.00    -0.020 C 
ATOM      7  C   UNL A   1     -37.870  13.548  30.809  1.00  0.00    -0.045 C 
ATOM      8  C   UNL A   1     -38.787  12.774  29.937  1.00  0.00    -0.000 C 
ATOM      9  C   UNL A   1     -38.337  12.086  28.879  1.00  0.00    -0.023 C 
ATOM     10  C   UNL A   1     -36.885  12.075  28.463  1.00  0.00     0.012 C 
ATOM     11  C   UNL A   1     -36.283  10.712  28.847  1.00  0.00     0.012 C 
ATOM     12  C   UNL A   1     -36.111  13.320  29.016  1.00  0.00     0.007 C 
ENDROOT
BRANCH   2  13
ATOM     13  O   UNL A   1     -35.906  15.876  30.482  1.00  0.00    -0.461 OA
BRANCH  13  14
ATOM     14  C   UNL A   1     -35.001  16.563  29.727  1.00  0.00     0.311 C 
ATOM     15  O   UNL A   1     -33.843  16.674  30.106  1.00  0.00    -0.252 OA
BRANCH  14  16
ATOM     16  C   UNL A   1     -35.433  17.184  28.401  1.00  0.00     0.062 C 
ATOM     17  C   UNL A   1     -35.764  18.687  28.577  1.00  0.00     0.023 C 
ATOM     18  C   UNL A   1     -34.259  17.071  27.408  1.00  0.00     0.023 C 
BRANCH  16  19
ATOM     19  C   UNL A   1     -36.655  16.428  27.809  1.00  0.00     0.015 C 
ATOM     20  C   UNL A   1     -36.485  15.976  26.353  1.00  0.00     0.005 C 
ENDBRANCH  16  19
ENDBRANCH  14  16
ENDBRANCH  13  14
ENDBRANCH   2  13
BRANCH  12  21
ATOM     21  C   UNL A   1     -34.597  13.304  28.656  1.00  0.00     0.009 C 
BRANCH  21  22
ATOM     22  C   UNL A   1     -34.325  13.100  27.152  1.00  0.00     0.046 C 
BRANCH  22  23
ATOM     23  C   UNL A   1     -32.922  12.534  26.853  1.00  0.00     0.179 C 
ATOM     24  C   UNL A   1     -32.698  12.304  25.334  1.00  0.00     0.077 C 
ATOM     25  O   UNL A   1     -32.752  11.363  27.586  1.00  0.00    -0.462 OA
ATOM     26  C   UNL A   1     -31.426  11.484  25.121  1.00  0.00     0.129 C 
ATOM     27  C   UNL A   1     -32.251  10.188  27.116  1.00  0.00     0.308 C 
ATOM     28  C   UNL A   1     -31.614  10.091  25.752  1.00  0.00     0.154 C 
ATOM     29  O   UNL A   1     -32.363   9.180  27.795  1.00  0.00    -0.252 OA
BRANCH  26  30
ATOM     30  O   UNL A   1     -30.307  12.166  25.643  1.00  0.00    -0.392 OA
ATOM     31  H   UNL A   1     -29.488  11.637  25.456  1.00  0.00     0.210 HD
ENDBRANCH  26  30
ENDBRANCH  22  23
ENDBRANCH  21  22
ENDBRANCH  12  21
TORSDOF 8
ENDMDL
MODEL 7
REMARK VINA RESULT:    -6.108      2.283      6.148
REMARK INTER + INTRA:         -10.743
REMARK INTER:                  -8.535
REMARK INTRA:                  -2.207
REMARK UNBOUND:                -1.957
REMARK SMILES CCC(C)(C)C(=O)O[C@H]1C[C@@H](C)C=C2C=C[C@H](C)[C@H](CC[C@@H]3C[C@@H](O)CC(=O)O3)[C@H]21
REMARK SMILES IDX 30 1 9 2 10 3 11 4 12 5 13 6 14 7 15 8 16 9 17 10 18 11
REMARK SMILES IDX 19 12 8 13 6 14 7 15 3 16 4 17 5 18 2 19 1 20 20 21 21 22
REMARK SMILES IDX 22 23 23 24 29 25 24 26 27 27 26 28 28 29 25 30
REMARK H PARENT 25 31
REMARK Flexibility Score: inf
ROOT
ATOM      1  C   UNL A   1     -36.193  11.027  25.874  1.00  0.00     0.063 C 
ATOM      2  C   UNL A   1     -35.004  10.624  24.954  1.00  0.00     0.185 C 
ATOM      3  C   UNL A   1     -35.445   9.454  24.066  1.00  0.00     0.053 C 
ATOM      4  C   UNL A   1     -35.842   8.201  24.874  1.00  0.00     0.012 C 
ATOM      5  C   UNL A   1     -34.637   7.336  25.257  1.00  0.00     0.012 C 
ATOM      6  C   UNL A   1     -36.617   8.548  26.127  1.00  0.00    -0.020 C 
ATOM      7  C   UNL A   1     -36.775   9.809  26.594  1.00  0.00    -0.045 C 
ATOM      8  C   UNL A   1     -37.579  10.012  27.823  1.00  0.00    -0.000 C 
ATOM      9  C   UNL A   1     -37.745  11.227  28.363  1.00  0.00    -0.023 C 
ATOM     10  C   UNL A   1     -37.101  12.471  27.798  1.00  0.00     0.012 C 
ATOM     11  C   UNL A   1     -38.188  13.298  27.089  1.00  0.00     0.012 C 
ATOM     12  C   UNL A   1     -35.848  12.132  26.919  1.00  0.00     0.007 C 
ENDROOT
BRANCH   2  13
ATOM     13  O   UNL A   1     -33.883  10.291  25.707  1.00  0.00    -0.461 OA
BRANCH  13  14
ATOM     14  C   UNL A   1     -32.622  10.759  25.478  1.00  0.00     0.311 C 
ATOM     15  O   UNL A   1     -32.392  11.450  24.494  1.00  0.00    -0.252 OA
BRANCH  14  16
ATOM     16  C   UNL A   1     -31.499  10.430  26.458  1.00  0.00     0.062 C 
ATOM     17  C   UNL A   1     -31.669  11.219  27.781  1.00  0.00     0.023 C 
ATOM     18  C   UNL A   1     -31.572   8.926  26.791  1.00  0.00     0.023 C 
BRANCH  16  19
ATOM     19  C   UNL A   1     -30.111  10.729  25.826  1.00  0.00     0.015 C 
ATOM     20  C   UNL A   1     -29.098   9.583  25.934  1.00  0.00     0.005 C 
ENDBRANCH  16  19
ENDBRANCH  14  16
ENDBRANCH  13  14
ENDBRANCH   2  13
BRANCH  12  21
ATOM     21  C   UNL A   1     -35.200  13.391  26.273  1.00  0.00     0.009 C 
BRANCH  21  22
ATOM     22  C   UNL A   1     -33.921  13.863  26.993  1.00  0.00     0.046 C 
BRANCH  22  23
ATOM     23  C   UNL A   1     -34.166  15.019  27.983  1.00  0.00     0.179 C 
ATOM     24  C   UNL A   1     -34.443  14.504  29.422  1.00  0.00     0.077 C 
ATOM     25  O   UNL A   1     -35.212  15.801  27.502  1.00  0.00    -0.462 OA
ATOM     26  C   UNL A   1     -34.959  15.653  30.288  1.00  0.00     0.129 C 
ATOM     27  C   UNL A   1     -36.268  16.262  28.225  1.00  0.00     0.308 C 
ATOM     28  C   UNL A   1     -36.310  16.138  29.728  1.00  0.00     0.154 C 
ATOM     29  O   UNL A   1     -37.225  16.743  27.639  1.00  0.00    -0.252 OA
BRANCH  26  30
ATOM     30  O   UNL A   1     -34.001  16.687  30.356  1.00  0.00    -0.392 OA
ATOM     31  H   UNL A   1     -33.457  16.681  29.527  1.00  0.00     0.210 HD
ENDBRANCH  26  30
ENDBRANCH  22  23
ENDBRANCH  21  22
ENDBRANCH  12  21
TORSDOF 8
ENDMDL
MODEL 8
REMARK VINA RESULT:    -6.037      2.035      5.340
REMARK INTER + INTRA:         -10.641
REMARK INTER:                  -8.654
REMARK INTRA:                  -1.987
REMARK UNBOUND:                -1.957
REMARK SMILES CCC(C)(C)C(=O)O[C@H]1C[C@@H](C)C=C2C=C[C@H](C)[C@H](CC[C@@H]3C[C@@H](O)CC(=O)O3)[C@H]21
REMARK SMILES IDX 30 1 9 2 10 3 11 4 12 5 13 6 14 7 15 8 16 9 17 10 18 11
REMARK SMILES IDX 19 12 8 13 6 14 7 15 3 16 4 17 5 18 2 19 1 20 20 21 21 22
REMARK SMILES IDX 22 23 23 24 29 25 24 26 27 27 26 28 28 29 25 30
REMARK H PARENT 25 31
REMARK Flexibility Score: inf
ROOT
ATOM      1  C   UNL A   1     -37.056  12.674  26.195  1.00  0.00     0.063 C 
ATOM      2  C   UNL A   1     -36.328  11.878  27.317  1.00  0.00     0.185 C 
ATOM      3  C   UNL A   1     -36.726  12.467  28.675  1.00  0.00     0.053 C 
ATOM      4  C   UNL A   1     -36.323  13.948  28.831  1.00  0.00     0.012 C 
ATOM      5  C   UNL A   1     -34.870  14.122  29.286  1.00  0.00     0.012 C 
ATOM      6  C   UNL A   1     -36.539  14.738  27.558  1.00  0.00    -0.020 C 
ATOM      7  C   UNL A   1     -36.859  14.181  26.367  1.00  0.00    -0.045 C 
ATOM      8  C   UNL A   1     -37.065  15.075  25.201  1.00  0.00    -0.000 C 
ATOM      9  C   UNL A   1     -37.345  14.590  23.984  1.00  0.00    -0.023 C 
ATOM     10  C   UNL A   1     -37.432  13.111  23.689  1.00  0.00     0.012 C 
ATOM     11  C   UNL A   1     -38.915  12.738  23.521  1.00  0.00     0.012 C 
ATOM     12  C   UNL A   1     -36.651  12.259  24.747  1.00  0.00     0.007 C 
ENDROOT
BRANCH   2  13
ATOM     13  O   UNL A   1     -34.950  11.913  27.136  1.00  0.00    -0.461 OA
BRANCH  13  14
ATOM     14  C   UNL A   1     -34.112  10.851  27.316  1.00  0.00     0.311 C 
ATOM     15  O   UNL A   1     -34.507   9.847  27.895  1.00  0.00    -0.252 OA
BRANCH  14  16
ATOM     16  C   UNL A   1     -32.682  10.912  26.786  1.00  0.00     0.062 C 
ATOM     17  C   UNL A   1     -32.647  11.507  25.355  1.00  0.00     0.023 C 
ATOM     18  C   UNL A   1     -31.864  11.840  27.705  1.00  0.00     0.023 C 
BRANCH  16  19
ATOM     19  C   UNL A   1     -32.028   9.502  26.800  1.00  0.00     0.015 C 
ATOM     20  C   UNL A   1     -30.546   9.487  27.193  1.00  0.00     0.005 C 
ENDBRANCH  16  19
ENDBRANCH  14  16
ENDBRANCH  13  14
ENDBRANCH   2  13
BRANCH  12  21
ATOM     21  C   UNL A   1     -36.774  10.726  24.505  1.00  0.00     0.009 C 
BRANCH  21  22
ATOM     22  C   UNL A   1     -35.633  10.146  23.645  1.00  0.00     0.046 C 
BRANCH  22  23
ATOM     23  C   UNL A   1     -35.279   8.688  23.999  1.00  0.00     0.179 C 
ATOM     24  C   UNL A   1     -35.919   7.676  23.010  1.00  0.00     0.077 C 
ATOM     25  O   UNL A   1     -35.667   8.445  25.313  1.00  0.00    -0.462 OA
ATOM     26  C   UNL A   1     -35.781   6.259  23.564  1.00  0.00     0.129 C 
ATOM     27  C   UNL A   1     -36.347   7.353  25.760  1.00  0.00     0.308 C 
ATOM     28  C   UNL A   1     -36.580   6.153  24.877  1.00  0.00     0.154 C 
ATOM     29  O   UNL A   1     -36.820   7.368  26.886  1.00  0.00    -0.252 OA
BRANCH  26  30
ATOM     30  O   UNL A   1     -34.421   5.925  23.733  1.00  0.00    -0.392 OA
ATOM     31  H   UNL A   1     -34.076   5.532  22.890  1.00  0.00     0.210 HD
ENDBRANCH  26  30
ENDBRANCH  22  23
ENDBRANCH  21  22
ENDBRANCH  12  21
TORSDOF 8
ENDMDL
MODEL 9
REMARK VINA RESULT:    -5.994      1.668      2.334
REMARK INTER + INTRA:         -10.578
REMARK INTER:                  -8.397
REMARK INTRA:                  -2.181
REMARK UNBOUND:                -1.957
REMARK SMILES CCC(C)(C)C(=O)O[C@H]1C[C@@H](C)C=C2C=C[C@H](C)[C@H](CC[C@@H]3C[C@@H](O)CC(=O)O3)[C@H]21
REMARK SMILES IDX 30 1 9 2 10 3 11 4 12 5 13 6 14 7 15 8 16 9 17 10 18 11
REMARK SMILES IDX 19 12 8 13 6 14 7 15 3 16 4 17 5 18 2 19 1 20 20 21 21 22
REMARK SMILES IDX 22 23 23 24 29 25 24 26 27 27 26 28 28 29 25 30
REMARK H PARENT 25 31
REMARK Flexibility Score: inf
ROOT
ATOM      1  C   UNL A   1     -37.269   8.639  25.102  1.00  0.00     0.063 C 
ATOM      2  C   UNL A   1     -37.041   8.972  26.605  1.00  0.00     0.185 C 
ATOM      3  C   UNL A   1     -38.102   8.241  27.436  1.00  0.00     0.053 C 
ATOM      4  C   UNL A   1     -39.542   8.672  27.087  1.00  0.00     0.012 C 
ATOM      5  C   UNL A   1     -39.975   9.945  27.822  1.00  0.00     0.012 C 
ATOM      6  C   UNL A   1     -39.736   8.872  25.599  1.00  0.00    -0.020 C 
ATOM      7  C   UNL A   1     -38.726   8.869  24.697  1.00  0.00    -0.045 C 
ATOM      8  C   UNL A   1     -39.057   9.055  23.264  1.00  0.00    -0.000 C 
ATOM      9  C   UNL A   1     -38.106   9.102  22.322  1.00  0.00    -0.023 C 
ATOM     10  C   UNL A   1     -36.631   9.014  22.639  1.00  0.00     0.012 C 
ATOM     11  C   UNL A   1     -36.130   7.619  22.225  1.00  0.00     0.012 C 
ATOM     12  C   UNL A   1     -36.330   9.411  24.125  1.00  0.00     0.007 C 
ENDROOT
BRANCH   2  13
ATOM     13  O   UNL A   1     -37.086  10.344  26.823  1.00  0.00    -0.461 OA
BRANCH  13  14
ATOM     14  C   UNL A   1     -36.431  10.997  27.826  1.00  0.00     0.311 C 
ATOM     15  O   UNL A   1     -35.785  10.366  28.652  1.00  0.00    -0.252 OA
BRANCH  14  16
ATOM     16  C   UNL A   1     -36.497  12.520  27.912  1.00  0.00     0.062 C 
ATOM     17  C   UNL A   1     -36.690  13.146  26.508  1.00  0.00     0.023 C 
ATOM     18  C   UNL A   1     -37.715  12.904  28.774  1.00  0.00     0.023 C 
BRANCH  16  19
ATOM     19  C   UNL A   1     -35.216  13.089  28.585  1.00  0.00     0.015 C 
ATOM     20  C   UNL A   1     -34.197  13.695  27.612  1.00  0.00     0.005 C 
ENDBRANCH  16  19
ENDBRANCH  14  16
ENDBRANCH  13  14
ENDBRANCH   2  13
BRANCH  12  21
ATOM     21  C   UNL A   1     -34.826   9.270  24.499  1.00  0.00     0.009 C 
BRANCH  21  22
ATOM     22  C   UNL A   1     -34.151  10.612  24.848  1.00  0.00     0.046 C 
BRANCH  22  23
ATOM     23  C   UNL A   1     -33.304  10.556  26.135  1.00  0.00     0.179 C 
ATOM     24  C   UNL A   1     -31.829  10.972  25.879  1.00  0.00     0.077 C 
ATOM     25  O   UNL A   1     -33.396   9.275  26.670  1.00  0.00    -0.462 OA
ATOM     26  C   UNL A   1     -30.980  10.625  27.102  1.00  0.00     0.129 C 
ATOM     27  C   UNL A   1     -32.360   8.520  27.127  1.00  0.00     0.308 C 
ATOM     28  C   UNL A   1     -30.977   9.097  27.295  1.00  0.00     0.154 C 
ATOM     29  O   UNL A   1     -32.545   7.336  27.361  1.00  0.00    -0.252 OA
BRANCH  26  30
ATOM     30  O   UNL A   1     -31.450  11.312  28.241  1.00  0.00    -0.392 OA
ATOM     31  H   UNL A   1     -32.438  11.235  28.281  1.00  0.00     0.210 HD
ENDBRANCH  26  30
ENDBRANCH  22  23
ENDBRANCH  21  22
ENDBRANCH  12  21
TORSDOF 8
ENDMDL
